results/snapshot/congestion/spd_s/pf_congestion_alpha1p0/tables/congestion_bus_table.csv
bus_id,bus_eng,vA_pu,vB_pu,vC_pu,vmin_pu,vmax_pu,vmean_pu,phase_spread_pu,unbalance_ratio,is_under,is_over,distance_km
190,sourcebus,1.01,1.01,1.01,1.01,1.01,1.01,0.0,0.0,false,false,0.001
204,sourcebusz,1.0091348760951366,1.0094957475356208,1.0103978426946227,1.0091348760951366,1.0103978426946227,1.0096761554417935,0.001262966599486104,0.0012508630541378694,false,false,0.0
269,_virtual_bus.transformer.dist_transformer_10148922_9108515_1,1.008954231595954,1.010217424035927,1.0098568104859367,1.008954231595954,1.010217424035927,1.009676155372606,0.00126319243997286,0.0012510867303850487,false,false,
268,_virtual_bus.transformer.dist_transformer_10148922_9108515_3,1.0087634665595828,1.010217424035927,1.0094588338345158,1.0087634665595828,1.010217424035927,1.0094799081433419,0.0014539574763441365,0.0014403035311701129,false,false,
266,_virtual_bus.transformer.dist_transformer_10148922_9108515_4,1.008748164576305,1.010217424035927,1.0093963971753321,1.008748164576305,1.010217424035927,1.0094539952625212,0.0014692594596219521,0.0014554991772951999,false,false,
1,9326133,1.0089983959169806,1.0085573966467456,1.010217424035927,1.0085573966467456,1.010217424035927,1.0092577388665511,0.0016600273891813622,0.0016448002579060321,false,false,0.025668200000000002
19,17636402,1.0089983959169806,1.0085573966467456,1.010217424035927,1.0085573966467456,1.010217424035927,1.0092577388665511,0.0016600273891813622,0.0016448002579060321,false,false,0.0001322
109,14495371,1.0089983959169806,1.0085573966467456,1.010217424035927,1.0085573966467456,1.010217424035927,1.0092577388665511,0.0016600273891813622,0.0016448002579060321,false,false,0.0010682
218,9431554,1.0089983959169806,1.0085573966467456,1.010217424035927,1.0085573966467456,1.010217424035927,1.0092577388665511,0.0016600273891813622,0.0016448002579060321,false,false,8.9e-5
152,9108515,1.0089983959169806,1.0085573966467456,1.010217424035927,1.0085573966467456,1.010217424035927,1.0092577388665511,0.0016600273891813622,0.0016448002579060321,false,false,0.0
33,17636403,1.0089983959169806,1.0085573966467456,1.010217424035927,1.0085573966467456,1.010217424035927,1.0092577388665511,0.0016600273891813622,0.0016448002579060321,false,false,0.0004022
189,17636404,1.0089983959169806,1.0085573966467456,1.010217424035927,1.0085573966467456,1.010217424035927,1.0092577388665511,0.0016600273891813622,0.0016448002579060321,false,false,0.025884200000000003
267,_virtual_bus.transformer.dist_transformer_10148922_9108515_2,1.0085573966467456,1.010217424035927,1.0089983959169806,1.0085573966467456,1.010217424035927,1.0092577388665511,0.0016600273891813622,0.0016448002579060321,false,false,
168,9431552,1.0089983828370503,1.008557391040217,1.010217424035927,1.008557391040217,1.010217424035927,1.0092577326377314,0.001660032995709937,0.001644805823158155,false,false,0.000108
214,17655573,1.0089983776050782,1.0085573887976056,1.010217424035927,1.0085573887976056,1.010217424035927,1.0092577301462036,0.0016600352383213668,0.0016448080492590233,false,false,0.0001512
39,9431555,1.008998374244037,1.0085573858595047,1.010217424035927,1.0085573858595047,1.010217424035927,1.0092577280464896,0.0016600381764222405,0.0016448109638312067,false,false,8.9e-5
145,17874057,1.0089983637241364,1.0085573806234507,1.010217424035927,1.0085573806234507,1.010217424035927,1.0092577227945048,0.0016600434124762753,0.0016448161604152294,false,false,0.0001322
229,9431553,1.0089983599901,1.0085573793889437,1.010217423053083,1.0085573793889437,1.010217423053083,1.009257720810709,0.001660043664139188,0.001644816413002737,false,false,0.00013800000000000002
161,9431551,1.0089983536351417,1.0085573761845148,1.010217425275165,1.0085573761845148,1.010217425275165,1.0092577183649405,0.0016600490906502063,0.001644821793723399,false,false,0.000174
151,17855758,1.0089983487434246,1.0085573739865015,1.01021742274541,1.0085573739865015,1.01021742274541,1.0092577151584454,0.0016600487589084612,0.0016448214702503875,false,false,0.0001812
59,17655574,1.0089983384863987,1.0085573720299321,1.010217424035927,1.0085573720299321,1.010217424035927,1.0092577115174193,0.0016600520059948387,0.0016448246934858194,false,false,0.0004742
122,17855757,1.008998343137582,1.0085573711042368,1.0102174255828378,1.0085573711042368,1.0102174255828378,1.0092577132748854,0.0016600544786009586,0.0016448271405470245,false,false,0.0002172
37,17874058,1.008998291399823,1.0085573446255802,1.010217424035927,1.0085573446255802,1.010217424035927,1.00925768668711,0.0016600794103467376,0.0016448518869308303,false,false,0.0004292
162,17855760,1.0089982571038505,1.008557329966602,1.0102174202384455,1.008557329966602,1.0102174202384455,1.009257669102966,0.0016600902718435506,0.0016448626774558457,false,false,0.0005332
92,17855759,1.0089982507979423,1.008557326416609,1.01021742828922,1.008557326416609,1.01021742828922,1.009257668501257,0.0016601018726110084,0.0016448741727930112,false,false,0.0005972
101,14711419,1.0089317202101848,1.0085288147621383,1.010217424035927,1.0085288147621383,1.010217424035927,1.0092259863360835,0.001688609273788666,0.0016731726061860839,false,false,0.0011991999999999999
223,12934948,1.0088672311423574,1.008497645452212,1.0102133390712462,1.008497645452212,1.0102133390712462,1.009192738555272,0.0017156936190341199,0.0017000653626286016,false,false,0.0012162
34,13485933,1.0088733133725214,1.0084950901203764,1.010217424035927,1.0084950901203764,1.010217424035927,1.0091952758429417,0.0017223339155505446,0.0017066408818768458,false,false,0.0011062000000000001
55,12934951,1.008866500716408,1.008490243261484,1.0102215751915509,1.008490243261484,1.0102215751915509,1.009192773056481,0.001731331930066915,0.0017155611656069782,false,false,0.0012912
260,14711417,1.008813434092293,1.0084781096191042,1.010217424035927,1.0084781096191042,1.010217424035927,1.0091696559157748,0.0017393144168227348,0.0017235104193104056,false,false,0.0033092
182,9739759,1.0088024476035005,1.0084734000310618,1.010217424035927,1.0084734000310618,1.010217424035927,1.0091644238901631,0.0017440240048651745,0.0017281861742036529,false,false,0.0058022
69,13454782,1.0088024476035005,1.0084734000310618,1.010217424035927,1.0084734000310618,1.010217424035927,1.0091644238901631,0.0017440240048651745,0.0017281861742036529,false,false,0.0035222
264,12936067,1.0087526940403633,1.008436656564375,1.0102247831777427,1.008436656564375,1.0102247831777427,1.0091380445941602,0.001788126613367691,0.0017719345960114034,false,false,0.0030012
184,12936066,1.008632320555669,1.008419702119535,1.0102078095260612,1.008419702119535,1.0102078095260612,1.009086610733755,0.0017881074065262403,0.0017720058788868699,false,false,0.0031361999999999996
226,13408540,1.0085697094508213,1.008419702119535,1.0102078095260612,1.008419702119535,1.0102078095260612,1.0090657403654724,0.0017881074065262403,0.0017720425290413762,false,false,0.0041962
235,12970598,1.0086941369141842,1.008419702119535,1.0102078095260612,1.008419702119535,1.0102078095260612,1.0091072161865935,0.0017881074065262403,0.0017719696954338322,false,false,0.0018541999999999999
121,12936056,1.0086788602452519,1.008419702119535,1.0102078095260612,1.008419702119535,1.0102078095260612,1.009102123963616,0.0017881074065262403,0.0017719786373085783,false,false,0.0026731999999999997
166,17857129,1.008632320555669,1.008419702119535,1.0102078095260612,1.008419702119535,1.0102078095260612,1.009086610733755,0.0017881074065262403,0.0017720058788868699,false,false,0.0031402999999999995
95,9402919,1.0086788602452519,1.008419702119535,1.0102078095260612,1.008419702119535,1.0102078095260612,1.009102123963616,0.0017881074065262403,0.0017719786373085783,false,false,0.0032731999999999995
70,14710390,1.00864926230466,1.008407732338451,1.010217424035927,1.008407732338451,1.010217424035927,1.0090914728930127,0.0018096916974759125,0.0017933871666635144,false,false,0.0064922
8,9402917,1.0086168776844422,1.0083564100453937,1.0102078092363769,1.0083564100453937,1.0102078092363769,1.0090603656554042,0.001851399190983205,0.001834775454470145,false,false,0.0038322
24,17855756,1.0085598403456009,1.0083227085651085,1.0102006806158292,1.0083227085651085,1.0102006806158292,1.009027743175513,0.001877972050720711,0.0018611698869751012,false,false,0.0041812
172,9739978,1.0084259842861851,1.0083120137283295,1.010217424035927,1.0083120137283295,1.010217424035927,1.0089851406834807,0.0019054103075974993,0.0018884423870769648,false,false,0.0096412
29,13435077,1.0084259842861851,1.0083120137283295,1.010217424035927,1.0083120137283295,1.010217424035927,1.0089851406834807,0.0019054103075974993,0.0018884423870769648,false,false,0.0091122
233,9402916,1.008540140200059,1.008311464306835,1.0101978406784502,1.008311464306835,1.0101978406784502,1.0090164817284482,0.0018863763716152615,0.0018695198797782702,false,false,0.0044672
63,9402918,1.0085377164650233,1.008309312041388,1.0101982245599508,1.008309312041388,1.0101982245599508,1.009015084355454,0.0018889125185628242,0.0018720359564985468,false,false,0.0044152
163,12936053,1.0085240219888192,1.008302264460692,1.0101955170951944,1.008302264460692,1.0101955170951944,1.0090072678482354,0.0018932526345023515,0.0018763518309831593,false,false,0.0047012
154,13486010,1.0084478849567382,1.0082831378537562,1.010217424035927,1.0082831378537562,1.010217424035927,1.0089828156154736,0.0019342861821707302,0.0019170655359386146,false,false,0.0027262000000000002
44,13691508,1.0083056307982647,1.0082831378537562,1.010217424035927,1.0082831378537562,1.010217424035927,1.0089353975626494,0.0019342861821707302,0.001917155634388,false,false,0.0041362000000000005
85,12936055,1.0084890258697607,1.0082798283144223,1.0101928191442142,1.0082798283144223,1.0101928191442142,1.008987224442799,0.0019129908297919052,0.001895951488234483,false,false,0.0049302
98,13513456,1.0082726272620064,1.0083120137283295,1.010217424035927,1.0082726272620064,1.010217424035927,1.0089340216754208,0.0019447967739205652,0.0019275757702085065,false,false,0.010632200000000001
176,13435075,1.0082258140946205,1.0082119130017726,1.010217424035927,1.0082119130017726,1.010217424035927,1.00888505037744,0.0020055110341543614,0.0019878488965656372,false,false,0.0118522
88,13355047,1.0081957166751625,1.0082119130017726,1.010217424035927,1.0081957166751625,1.010217424035927,1.0088750179042874,0.0020217073607644576,0.0020039225125864485,false,false,0.0138522
105,9783456,1.0081595919230042,1.0081199359089832,1.0101955170951944,1.0081199359089832,1.0101955170951944,1.0088250149757272,0.002075581186211206,0.0020574243852003863,false,false,0.0098762
136,12969818,1.0081595919230042,1.0081199359089832,1.0101955170951944,1.0081199359089832,1.0101955170951944,1.0088250149757272,0.002075581186211206,0.0020574243852003863,false,false,0.0096912
213,12969125,1.0081240997407128,1.0081021784101183,1.0101955170951944,1.0081021784101183,1.0101955170951944,1.0088072650820086,0.002093338685076107,0.0020750630546915562,false,false,0.0101772
196,12962925,1.008006978793225,1.0080273024612083,1.0102189934862418,1.008006978793225,1.0102189934862418,1.0087510915802251,0.002212014693016684,0.0021928250799228646,false,false,0.007950200000000001
132,9783455,1.008006978793225,1.0080273024612083,1.0102189934862418,1.008006978793225,1.0102189934862418,1.0087510915802251,0.002212014693016684,0.0021928250799228646,false,false,0.0083622
165,13357784,1.0080060239776822,1.0081021784101183,1.0101955170951944,1.0080060239776822,1.0101955170951944,1.0087679064943318,0.0021894931175121535,0.0021704627034786184,false,false,0.011347200000000002
58,9290701,1.007955469899605,1.0080497102020327,1.010217424035927,1.007955469899605,1.010217424035927,1.008740868045855,0.0022619541363220197,0.0022423540157581845,false,false,0.0162922
203,12968592,1.0079287324897628,1.007984892796239,1.0101955170951944,1.0079287324897628,1.0101955170951944,1.0087030474603988,0.0022667846054316154,0.002247226883212731,false,false,0.013387200000000002
128,13691505,1.0079242365321641,1.0079816173401224,1.0101965226790095,1.0079242365321641,1.0101965226790095,1.0087007921837654,0.0022722861468453814,0.00225268599415496,false,false,0.014597200000000001
108,12185636,1.0079073813186092,1.0079370049873575,1.0102244017133533,1.0079073813186092,1.0102244017133533,1.00868959600644,0.0023170203947440182,0.002297059872449825,false,false,0.0092192
234,12962393,1.0079073813186092,1.0079751271603468,1.0102244017133533,1.0079073813186092,1.0102244017133533,1.0087023033974365,0.0023170203947440182,0.0022970309346375057,false,false,0.0085742
169,13485982,1.0078386979174963,1.007956480176006,1.010217424035927,1.0078386979174963,1.010217424035927,1.0086708673764766,0.0023787261184307074,0.0023582778043522803,false,false,0.0065562
99,9760720,1.0078386979174963,1.007956480176006,1.010217424035927,1.0078386979174963,1.010217424035927,1.0086708673764766,0.0023787261184307074,0.0023582778043522803,false,false,0.0068731999999999994
72,11910744,1.0078240067998954,1.0079751271603468,1.0102244017133533,1.0078240067998954,1.0102244017133533,1.0086745118911986,0.002400394913457893,0.002379751728788417,false,false,0.009400200000000001
248,17655572,1.0078219113950397,1.0079695772039519,1.010217424035927,1.0078219113950397,1.010217424035927,1.0086696375449729,0.0023955126408872207,0.002374922919973799,false,false,0.0165082
78,9290700,1.0078125179477009,1.0079413889087716,1.010217424035927,1.0078125179477009,1.010217424035927,1.0086571102974666,0.0024049060882260775,0.002384265241055841,false,false,0.0170112
50,9290699,1.0078087818320556,1.0079695772039519,1.010217424035927,1.0078087818320556,1.010217424035927,1.0086652610239781,0.0024086422038713806,0.0023879499938623565,false,false,0.0167582
53,13454765,1.0077881422185229,1.0079695772039519,1.010217424035927,1.0077881422185229,1.010217424035927,1.0086583811528005,0.002429281817404094,0.0024084287235363634,false,false,0.017151200000000002
221,13485981,1.0077862126320112,1.007928335725311,1.010217424035927,1.0077862126320112,1.010217424035927,1.0086439907977498,0.0024312114039157784,0.002410376134787559,false,false,0.0068862
139,13601756,1.0077862126320112,1.0077749029604373,1.010217424035927,1.0077749029604373,1.010217424035927,1.0085928465427918,0.002442521075489701,0.0024217116786640538,false,false,0.0084062
57,9739755,1.0077678851716576,1.0078074534204082,1.010217424035927,1.0077678851716576,1.010217424035927,1.0085975875426643,0.0024495388642693516,0.002428658262248456,false,false,0.0213442
217,13454745,1.0077678851716576,1.0078074534204082,1.010217424035927,1.0077678851716576,1.010217424035927,1.0085975875426643,0.0024495388642693516,0.002428658262248456,false,false,0.0205912
79,14710399,1.0077678851716576,1.0078074534204082,1.010217424035927,1.0077678851716576,1.010217424035927,1.0085975875426643,0.0024495388642693516,0.002428658262248456,false,false,0.0194012
146,12970284,1.0077475931423472,1.0078489764317318,1.0101955170951944,1.0077475931423472,1.0101955170951944,1.0085973622230913,0.0024479239528472085,0.0024270576590163175,false,false,0.017107200000000003
231,13601751,1.007690113244529,1.0078489764317318,1.0101955170951944,1.007690113244529,1.0101955170951944,1.0085782022571517,0.002505403850665333,0.0024840947831892006,false,false,0.018127200000000003
247,12970263,1.0076354687207103,1.0077368116545518,1.0101955170951944,1.0076354687207103,1.0101955170951944,1.0085225991568187,0.002560048374484092,0.002538414485331747,false,false,0.020177200000000003
43,12970262,1.0075548677077755,1.0076158810927442,1.0101955170951944,1.0075548677077755,1.0101955170951944,1.0084554219652382,0.002640649387418925,0.0026185087906740903,false,false,0.023487200000000003
242,12934915,1.0075548677077755,1.0076158810927442,1.0101955170951944,1.0075548677077755,1.0101955170951944,1.0084554219652382,0.002640649387418925,0.0026185087906740903,false,false,0.0235792
210,9783459,1.0075548677077755,1.0076158810927442,1.0101955170951944,1.0075548677077755,1.0101955170951944,1.0084554219652382,0.002640649387418925,0.0026185087906740903,false,false,0.0237872
140,9290703,1.0075455140465275,1.0079695772039519,1.010217424035927,1.0075455140465275,1.010217424035927,1.0085775050954686,0.002671909989399479,0.0026491865780276,false,false,0.0217712
87,13691475,1.0075431859710529,1.0077368116545518,1.0101955170951944,1.0075431859710529,1.0101955170951944,1.0084918382402666,0.002652331124141538,0.0026299976098662662,false,false,0.021091200000000004
198,12970260,1.0075305659032554,1.0075794198192938,1.0101955170951944,1.0075305659032554,1.0101955170951944,1.0084351676059145,0.002664951191938991,0.002642659912650354,false,false,0.024485200000000002
164,9365422,1.0075302706016391,1.007578400401059,1.0101951193408616,1.0075302706016391,1.0101951193408616,1.0084345967811867,0.0026648487392224585,0.0026425598127318966,false,false,0.0245467
60,17855762,1.0075292334525279,1.0075748200090795,1.0101937223504043,1.0075292334525279,1.0101937223504043,1.0084325919373374,0.0026644888978764047,0.002642208234025396,false,false,0.024762700000000002
160,17655571,1.0075177332371388,1.0079695772039519,1.010217424035927,1.0075177332371388,1.010217424035927,1.0085682448256728,0.002699690798788179,0.0026767557006068645,false,false,0.022300200000000003
173,13454733,1.0076631202155022,1.007493075412812,1.010217424035927,1.007493075412812,1.010217424035927,1.0084578732214136,0.0027243486231149916,0.002701499681302843,false,false,0.0250112
240,9739753,1.0076631202155022,1.007493075412812,1.010217424035927,1.007493075412812,1.010217424035927,1.0084578732214136,0.0027243486231149916,0.002701499681302843,false,false,0.025200200000000002
254,12970259,1.0074437905975833,1.0074466281113466,1.0101937223504043,1.0074437905975833,1.0101937223504043,1.0083613803531115,0.002749931752821011,0.0027271291884046873,false,false,0.025185700000000002
100,9290702,1.0074108800591506,1.0079695772039519,1.010217424035927,1.0074108800591506,1.010217424035927,1.0085326270996766,0.0028065439767763767,0.002782799387311241,false,false,0.022516200000000004
187,14711418,1.0076313734477829,1.0073978110482797,1.010217424035927,1.0073978110482797,1.010217424035927,1.0084155361773297,0.002819612987647213,0.0027960824545957656,false,false,0.0267112
232,12959079,1.0073944031835727,1.0073725298203398,1.0101937223504043,1.0073725298203398,1.0101937223504043,1.0083202184514388,0.00282119253006452,0.0027979132803637122,false,false,0.027355700000000004
249,9739977,1.0073658233735872,1.0079695772039519,1.010217424035927,1.0073658233735872,1.010217424035927,1.0085176082044887,0.002851600662339804,0.002827516980508295,false,false,0.0236862
2,13457817,1.0073658233735872,1.0079695772039519,1.010217424035927,1.0073658233735872,1.010217424035927,1.0085176082044887,0.002851600662339804,0.002827516980508295,false,false,0.023441200000000002
200,12934942,1.0073738059144228,1.0073519333423562,1.0101937223504043,1.0073519333423562,1.0101937223504043,1.0083064872023944,0.002841789008048101,0.002818378185716936,false,false,0.029165700000000003
220,9783457,1.0073738059144228,1.0073519333423562,1.0101937223504043,1.0073519333423562,1.0101937223504043,1.0083064872023944,0.002841789008048101,0.002818378185716936,false,false,0.029371700000000004
48,14746712,1.00760616284183,1.0073221604982716,1.010217424035927,1.0073221604982716,1.010217424035927,1.0083819157920095,0.002895263537655346,0.002871197402802816,false,false,0.0280612
65,12934941,1.0073421705176833,1.0073202991607875,1.0101937223504043,1.0073202991607875,1.0101937223504043,1.0082853973429584,0.0028734231896168083,0.0028498113700633526,false,false,0.0319457
107,13435072,1.0073156526198555,1.0079695772039519,1.010217424035927,1.0073156526198555,1.010217424035927,1.0085008846199115,0.002901771416071508,0.002877311721114792,false,false,0.024471200000000002
73,11083673,1.00760616284183,1.007303629529113,1.010217424035927,1.007303629529113,1.010217424035927,1.0083757388022898,0.0029137945068140603,0.0028895920386531257,false,false,0.0292612
12,9854615,1.0073018869247334,1.0073202991607875,1.0101937223504043,1.0073018869247334,1.0101937223504043,1.0082719694786417,0.002891835425670841,0.002868110503127598,false,false,0.0359477
67,12810038,1.0073018869247334,1.0073202991607875,1.0101937223504043,1.0073018869247334,1.0101937223504043,1.0082719694786417,0.002891835425670841,0.002868110503127598,false,false,0.0354857
112,12934939,1.0072991786060226,1.0073202991607875,1.0101937223504043,1.0072991786060226,1.0101937223504043,1.0082710667057382,0.0028945437443816946,0.002870799172923665,false,false,0.035723700000000004
120,12934917,1.0072991786060226,1.0073202991607875,1.0101937223504043,1.0072991786060226,1.0101937223504043,1.0082710667057382,0.0028945437443816946,0.002870799172923665,false,false,0.039873700000000005
68,12970256,1.007340834258884,1.007265353973486,1.0101937223504043,1.007265353973486,1.0101937223504043,1.0082666368609248,0.0029283683769183444,0.002904359094966532,false,false,0.029775700000000002
66,12807627,1.0073421705176833,1.0072611034753896,1.0101937223504043,1.0072611034753896,1.0101937223504043,1.0082656654478257,0.0029326188750147253,0.0029085775460896903,false,false,0.0329957
215,12208987,1.0072538777292834,1.007265353973486,1.0101937223504043,1.0072538777292834,1.0101937223504043,1.0082376513510578,0.002939844621120846,0.0029158250707870294,false,false,0.030636700000000003
202,12848124,1.007233037158467,1.0079695772039519,1.010217424035927,1.007233037158467,1.010217424035927,1.0084733461327822,0.0029843868774599436,0.0029593116059083227,false,false,0.0252892
47,13691477,1.007232652048904,1.0073202991607875,1.0101937223504043,1.007232652048904,1.0101937223504043,1.0082488911866987,0.0029610703015001683,0.002936844590044645,false,false,0.036903700000000005
77,13454739,1.007189245769922,1.0079695772039519,1.010217424035927,1.007189245769922,1.010217424035927,1.0084587490032668,0.0030281782660048773,0.003002778516223739,false,false,0.027931200000000003
179,13435074,1.0075210074266043,1.0071517955135352,1.010217424035927,1.0071517955135352,1.010217424035927,1.0082967423253555,0.0030656285223917834,0.0030404030814596954,false,false,0.0326212
250,13485979,1.007150070494744,1.0076358741981517,1.010217424035927,1.007150070494744,1.010217424035927,1.0083344562429408,0.0030673535411829267,0.003042000124256292,false,false,0.0108862
209,13725341,1.007150070494744,1.007485426497476,1.010217424035927,1.007150070494744,1.010217424035927,1.0082843070093823,0.0030673535411829267,0.0030421514248107646,false,false,0.0123762
51,10792061,1.0074079380304017,1.0071399243822552,1.0102120561893642,1.0071399243822552,1.0102120561893642,1.0082533062006738,0.0030721318071089687,0.0030469841142256753,false,false,0.034888199999999994
49,16521466,1.007486096055794,1.0071399243822552,1.0102120561893642,1.0071399243822552,1.0102120561893642,1.0082793588758046,0.0030721318071089687,0.0030469053839744234,false,false,0.0341142
116,13454743,1.0075187123977152,1.0071399243822552,1.0102120561893642,1.0071399243822552,1.0102120561893642,1.008290230989778,0.0030721318071089687,0.0030468725300385395,false,false,0.0337912
181,9739976,1.0075242617496474,1.0071164214643618,1.0101949311035632,1.0071164214643618,1.0101949311035632,1.0082785381058574,0.003078509639201421,0.0030532333307269244,false,false,0.0372352
27,13457819,1.0075242617496474,1.0071164214643618,1.0101949311035632,1.0071164214643618,1.0101949311035632,1.0082785381058574,0.003078509639201421,0.0030532333307269244,false,false,0.036951200000000003
183,14746714,1.0075247183540994,1.0071144877103202,1.0101935220781202,1.0071144877103202,1.0101935220781202,1.0082775760475133,0.003079034367799993,0.0030537566647767032,false,false,0.03721120000000001
147,13714731,1.007525649150308,1.007110545921995,1.0101906498541173,1.007110545921995,1.0101906498541173,1.0082756149754732,0.0030801039321224355,0.0030548233899293105,false,false,0.038271200000000005
228,12317603,1.0071079331689503,1.0079695772039519,1.010217424035927,1.0071079331689503,1.010217424035927,1.0084316448029431,0.0031094908669766497,0.003083491958033777,false,false,0.028736200000000003
16,13454780,1.0071049719322647,1.0079695772039519,1.010217424035927,1.0071049719322647,1.010217424035927,1.008430657724048,0.0031124521036622887,0.003086431456464105,false,false,0.0313912
142,14711416,1.0075290824395224,1.0070960053389406,1.0101800549578772,1.0070960053389406,1.0101800549578772,1.0082683809121136,0.003084049618936602,0.0030587586374043255,false,false,0.04218120000000001
158,14755909,1.0075290824395224,1.0070960053389406,1.0101800549578772,1.0070960053389406,1.0101800549578772,1.0082683809121136,0.003084049618936602,0.0030587586374043255,false,false,0.042705200000000006
125,12961574,1.0070929889045512,1.0075905833043197,1.0102749216614626,1.0070929889045512,1.0102749216614626,1.008319497956778,0.0031819327569113653,0.003155679091160211,false,false,0.0114942
106,12317602,1.0075299868888945,1.0070921750410564,1.0101772639863205,1.0070921750410564,1.0101772639863205,1.0082664753054238,0.0030850889452640473,0.0030597952236084344,false,false,0.04321120000000001
255,17855761,1.0070877047133273,1.007587712499298,1.0102752988319152,1.0070877047133273,1.0102752988319152,1.0083169053481802,0.003187594118587933,0.003161301870156814,false,false,0.011516
224,16670850,1.007340834258884,1.0070749195122692,1.0101937223504043,1.0070749195122692,1.0101937223504043,1.008203158707186,0.0031188028381350374,0.0030934269657856093,false,false,0.0340757
111,14587801,1.0070747676660918,1.0079695772039519,1.010217424035927,1.0070747676660918,1.010217424035927,1.0084205896353235,0.0031426563698351284,0.00311641432368176,false,false,0.0316902
123,9739974,1.0070515068211283,1.0079695772039519,1.010217424035927,1.0070515068211283,1.010217424035927,1.0084128360203357,0.0031659172147986414,0.0031395050734308555,false,false,0.036035199999999996
102,14756890,1.0070515068211283,1.0079695772039519,1.010217424035927,1.0070515068211283,1.010217424035927,1.0084128360203357,0.0031659172147986414,0.0031395050734308555,false,false,0.0357812
192,9739756,1.0070425676074215,1.0079695772039519,1.010217424035927,1.0070425676074215,1.010217424035927,1.0084098562824335,0.003174856428505457,0.0031483790134794647,false,false,0.0423952
177,13454737,1.0070425676074215,1.0079695772039519,1.010217424035927,1.0070425676074215,1.010217424035927,1.0084098562824335,0.003174856428505457,0.0031483790134794647,false,false,0.0398152
257,14746713,1.0070425676074215,1.0079695772039519,1.010217424035927,1.0070425676074215,1.010217424035927,1.0084098562824335,0.003174856428505457,0.0031483790134794647,false,false,0.0378852
180,9404445,1.0070425676074215,1.0079695772039519,1.010217424035927,1.0070425676074215,1.010217424035927,1.0084098562824335,0.003174856428505457,0.0031483790134794647,false,false,0.040845200000000005
265,14711422,1.0070425676074215,1.0079695772039519,1.010217424035927,1.0070425676074215,1.010217424035927,1.0084098562824335,0.003174856428505457,0.0031483790134794647,false,false,0.040047200000000005
148,14746710,1.0070425676074215,1.0079695772039519,1.010217424035927,1.0070425676074215,1.010217424035927,1.0084098562824335,0.003174856428505457,0.0031483790134794647,false,false,0.0365152
18,9739760,1.0070425676074215,1.0079695772039519,1.010217424035927,1.0070425676074215,1.010217424035927,1.0084098562824335,0.003174856428505457,0.0031483790134794647,false,false,0.0408492
143,12970257,1.007340834258884,1.0070366116121219,1.0101937223504043,1.0070366116121219,1.0101937223504043,1.0081903894071367,0.003157110738282398,0.003131462838223371,false,false,0.0358057
131,9783458,1.007340834258884,1.0070366116121219,1.0101937223504043,1.0070366116121219,1.0101937223504043,1.0081903894071367,0.003157110738282398,0.003131462838223371,false,false,0.036162700000000006
61,13728130,1.0070265822735827,1.0079695772039519,1.010217424035927,1.0070265822735827,1.010217424035927,1.0084045278378204,0.0031908417623442986,0.003164247754009961,false,false,0.0321672
13,13485978,1.0069862768101125,1.0075731050585481,1.010217424035927,1.0069862768101125,1.010217424035927,1.0082589353015292,0.0032311472258144125,0.0032046799811876778,false,false,0.0119162
197,16419830,1.007340834258884,1.0069810313891105,1.0101937223504043,1.0069810313891105,1.0101937223504043,1.0081718626661331,0.0032126909612937293,0.0031866500943576186,false,false,0.0345877
76,11650907,1.0069677197430715,1.0075905833043197,1.0102749216614626,1.0069677197430715,1.0102749216614626,1.008277741569618,0.0033072019183910673,0.003280050507950955,false,false,0.0127342
21,13507545,1.0069233546063396,1.0079695772039519,1.010217424035927,1.0069233546063396,1.010217424035927,1.0083701186154064,0.0032940694295873207,0.0032667265409554278,false,false,0.0376952
206,13572881,1.007340834258884,1.0069184083103369,1.0101937223504043,1.0069184083103369,1.0101937223504043,1.0081509883065418,0.003275314040067423,0.0032488328415659104,false,false,0.0369757
75,11278631,1.007340834258884,1.0069093316856963,1.0101937223504043,1.0069093316856963,1.0101937223504043,1.008147962764995,0.0032843906647079812,0.003257845857963204,false,false,0.0349787
251,12959365,1.0065916232144037,1.0073210267900348,1.010310596243116,1.0065916232144037,1.010310596243116,1.0080744154158514,0.00371897302871238,0.0036891850163444802,false,false,0.014536
31,11068336,1.0065916232144037,1.0072109377503768,1.010310596243116,1.0065916232144037,1.010310596243116,1.0080377190692988,0.00371897302871238,0.0036893193164895,false,false,0.015626
90,12327065,1.0065823810359409,1.0072698584461475,1.010217424035927,1.0065823810359409,1.010217424035927,1.0080232211726718,0.003635042999986071,0.003606110378843542,false,false,0.0159262
114,13485976,1.0065823810359409,1.0074183184793923,1.010217424035927,1.0065823810359409,1.010217424035927,1.0080727078504201,0.003635042999986071,0.0036059333534952183,false,false,0.0144562
227,13485975,1.006111740022023,1.0072739788465104,1.010217424035927,1.006111740022023,1.010217424035927,1.0078677143014867,0.004105684013903987,0.004073633826785964,false,false,0.0174162
261,9638199,1.006111740022023,1.0072739788465104,1.010217424035927,1.006111740022023,1.010217424035927,1.0078677143014867,0.004105684013903987,0.004073633826785964,false,false,0.0177792
262,12959135,1.0060955698423064,1.0071295673027245,1.0103458938429013,1.0060955698423064,1.0103458938429013,1.0078570103293105,0.004250324000594885,0.004217189499139486,false,false,0.017556000000000002
7,13601753,1.0059802899920802,1.0071295673027245,1.0103458938429013,1.0059802899920802,1.0103458938429013,1.0078185837125686,0.004365603850821076,0.004331735811756129,false,false,0.018696
153,13485937,1.0059748489551459,1.0072319943437955,1.010217424035927,1.0059748489551459,1.010217424035927,1.0078080891116228,0.004242575080781075,0.004209705326458414,false,false,0.0182772
81,9783454,1.0059516629030016,1.007065273290468,1.0103579412847812,1.0059516629030016,1.0103579412847812,1.0077916258260837,0.004406278381779538,0.004372211743839134,false,false,0.019266000000000002
194,12958923,1.0059516629030016,1.007065273290468,1.0103579412847812,1.0059516629030016,1.0103579412847812,1.0077916258260837,0.004406278381779538,0.004372211743839134,false,false,0.018946
23,12993671,1.005909940979624,1.0070466330525663,1.010361434182142,1.005909940979624,1.010361434182142,1.0077726694047773,0.004451493202518142,0.00441716007752754,false,false,0.0403412
124,12993673,1.005879298526071,1.007030090561154,1.0103588654077185,1.005879298526071,1.0103588654077185,1.0077560848316478,0.004479566881647523,0.00444509038354838,false,false,0.0398262
201,12817081,1.005831233466776,1.0072319943437955,1.010217424035927,1.005831233466776,1.010217424035927,1.007760217282166,0.004386190569150905,0.004352414883949325,false,false,0.0196972
167,12970287,1.0057896146437841,1.0071325704431053,1.0104886330805394,1.0057896146437841,1.0104886330805394,1.0078036060558098,0.004699018436755242,0.0046626330849772945,false,false,0.0248542
38,12958438,1.0057889203570358,1.006989711922725,1.0103664319094692,1.0057889203570358,1.0103664319094692,1.0077150213964101,0.004577511552433355,0.004542466327524035,false,false,0.0389532
74,11729147,1.0057889203570358,1.006888680480851,1.0103664319094692,1.0057889203570358,1.0103664319094692,1.0076813442491188,0.004577511552433355,0.004542618138717575,false,false,0.0399532
157,12934965,1.0057810663206592,1.0071325704431053,1.0104886330805394,1.0057810663206592,1.0104886330805394,1.007800756614768,0.004707566759880155,0.004671128423928762,false,false,0.0253112
186,9356220,1.0057810663206592,1.0071325704431053,1.0104886330805394,1.0057810663206592,1.0104886330805394,1.007800756614768,0.004707566759880155,0.004671128423928762,false,false,0.0253766
155,12934954,1.0057685545700177,1.0071325704431053,1.0104886330805394,1.0057685545700177,1.0104886330805394,1.0077965860312208,0.004720078510521697,0.004683562710913442,false,false,0.0256472
174,12156592,1.005738615754583,1.0071325704431053,1.0104886330805394,1.005738615754583,1.0104886330805394,1.0077866064260759,0.004750017325956479,0.004713316584749538,false,false,0.026451199999999998
84,12958003,1.0054338413378467,1.0068951571147817,1.0103961606687863,1.0054338413378467,1.0103961606687863,1.0075750530404715,0.004962319330939602,0.0049250121030341544,false,false,0.0355232
93,13485931,1.0053646668487939,1.0070292844240347,1.010217424035927,1.0053646668487939,1.010217424035927,1.0075371251029186,0.004852757187133072,0.004816454963520445,false,false,0.0209872
46,10652242,1.0053124135086575,1.0068951571147817,1.0103961606687863,1.0053124135086575,1.0103961606687863,1.0075345770974085,0.0050837471601288264,0.005045729720536757,false,false,0.0367232
134,13357796,1.0052462669257956,1.0070292844240347,1.010217424035927,1.0052462669257956,1.010217424035927,1.0074976584619193,0.004971157110131408,0.004934162445320764,false,false,0.022157200000000002
241,12934968,1.0051599298783949,1.006806124003166,1.0104241561495073,1.0051599298783949,1.0104241561495073,1.0074634033436893,0.005264226271112449,0.005225228284859687,false,false,0.0322932
188,14963904,1.0051023073929743,1.006782089199276,1.0104317140919579,1.0051023073929743,1.0104317140919579,1.0074387035614027,0.005329406698983519,0.005290055543968581,false,false,0.0314212
52,12934967,1.0050586873385272,1.006756704452905,1.0104396967488702,1.0050586873385272,1.0104396967488702,1.0074183628467674,0.0053810094103430295,0.0053413850777321034,false,false,0.0305002
238,9783449,1.0050586873385272,1.006756704452905,1.0104396967488702,1.0050586873385272,1.0104396967488702,1.0074183628467674,0.0053810094103430295,0.0053413850777321034,false,false,0.0310172
126,13812808,1.00503805266876,1.006782089199276,1.0104317140919579,1.00503805266876,1.0104317140919579,1.0074172853199979,0.005393661423197971,0.00535394965104725,false,false,0.0320582
113,13624269,1.0050334074408365,1.006806124003166,1.0104241561495073,1.0050334074408365,1.0104241561495073,1.0074212291978366,0.005390748708670845,0.005351037433431149,false,false,0.0335432
89,9290727,1.0049696496418452,1.0067048896299988,1.0104559914663949,1.0049696496418452,1.0104559914663949,1.007376843579413,0.0054863418245496565,0.005446166307591088,false,false,0.028620200000000002
205,17855763,1.0049594199640284,1.0066989366122785,1.010457863629149,1.0049594199640284,1.010457863629149,1.0073720734018188,0.005498443665120645,0.005458205374457939,false,false,0.0284042
26,9290728,1.0045536039576959,1.0064828923231335,1.010457863629149,1.0045536039576959,1.010457863629149,1.0071647866366595,0.005904259671453138,0.005862257844786162,false,false,0.0286222
110,12963145,1.004192479949675,1.0062906336630029,1.010457863629149,1.004192479949675,1.010457863629149,1.0069803257472758,0.006265383679473935,0.006221952424765022,false,false,0.0305922
243,13357787,1.0041527902650036,1.0062906336630029,1.010457863629149,1.0041527902650036,1.010457863629149,1.006967095852385,0.00630507336414543,0.006261449247066275,false,false,0.0312612
199,12156586,1.0041332705586394,1.0062906336630029,1.010457863629149,1.0041332705586394,1.010457863629149,1.006960589283597,0.006324593070509588,0.006280874482892349,false,false,0.0315902
45,12963201,1.004087937895998,1.006226418953517,1.010457863629149,1.004087937895998,1.010457863629149,1.006924073492888,0.006369925733151094,0.0063261231912498175,false,false,0.0312502
28,10932313,1.0040630183808277,1.006226418953517,1.010457863629149,1.0040630183808277,1.010457863629149,1.0069157669878315,0.006394845248321346,0.006350923739580917,false,false,0.031670199999999996
25,12963305,1.004006687016432,1.0061723543164005,1.010457863629149,1.004006687016432,1.010457863629149,1.0068789683206605,0.006451176612717102,0.006407102358565302,false,false,0.0318042
222,10493341,1.0039686515102277,1.0061723543164005,1.010457863629149,1.0039686515102277,1.010457863629149,1.0068662898185925,0.006489212118921284,0.006444959161449776,false,false,0.0324452
36,9369082,1.003901107207022,1.0064989643114528,1.010217424035927,1.003901107207022,1.010217424035927,1.0068724985181339,0.006316316828904878,0.006273204242047455,false,false,0.0280772
119,12807645,1.0038800192133193,1.0061723543164005,1.010457863629149,1.0038800192133193,1.010457863629149,1.006836745719623,0.006577844415829759,0.006533178734083978,false,false,0.0330542
253,17874063,1.0037846441604579,1.0064658171108547,1.0102320113056944,1.0037846441604579,1.0102320113056944,1.0068274908590025,0.006447367145236527,0.006403646308600274,false,false,0.0291972
263,13485934,1.0037846441604579,1.0064658171108547,1.0102320113056944,1.0037846441604579,1.0102320113056944,1.0068274908590025,0.006447367145236527,0.006403646308600274,false,false,0.0293792
259,12971246,1.0037756761353804,1.0059879143465402,1.010457863629149,1.0037756761353804,1.010457863629149,1.00674048470369,0.006682187493768588,0.006637447877876223,false,false,0.0336942
171,9369084,1.003768205134663,1.0064576254982944,1.0102320113056944,1.003768205134663,1.0102320113056944,1.0068192806462173,0.006463806171031372,0.006420026210545591,false,false,0.029421199999999998
104,9369083,1.0037643766178934,1.0064617788372296,1.0102320113056944,1.0037643766178934,1.0102320113056944,1.0068193889202723,0.006467634687800983,0.006423828105591975,false,false,0.0294132
212,12970285,1.0037632102446703,1.0059879143465402,1.010457863629149,1.0037632102446703,1.010457863629149,1.0067363294067866,0.0066946533844787215,0.006649857752151952,false,false,0.0338172
135,11730840,1.0037366468208586,1.0059879143465402,1.010457863629149,1.0037366468208586,1.010457863629149,1.0067274749321828,0.006721216808290409,0.0066763021529169814,false,false,0.0340802
127,12971481,1.0036883506726952,1.0059007712522607,1.010457863629149,1.0036883506726952,1.010457863629149,1.0066823285180349,0.006769512956453783,0.006724577122973214,false,false,0.0345872
117,12308114,1.003683950738386,1.0059879143465402,1.010457863629149,1.003683950738386,1.010457863629149,1.0067099095713585,0.006773912890763123,0.006728763496176719,false,false,0.034599200000000004
17,12972223,1.0036467645890779,1.0058372642786708,1.010457863629149,1.0036467645890779,1.010457863629149,1.006647297498966,0.006811099040071156,0.0067661226101668965,false,false,0.0352322
64,12972035,1.0036467645890779,1.0058533457457801,1.010457863629149,1.0036467645890779,1.010457863629149,1.0066526579880024,0.006811099040071156,0.006766086580136296,false,false,0.0350732
138,11113663,1.0036467645890779,1.0057949872198915,1.010457863629149,1.0036467645890779,1.010457863629149,1.0066332051460396,0.006811099040071156,0.006766217332442376,false,false,0.0356502
211,12971810,1.0036224830803036,1.0059007712522607,1.010457863629149,1.0036224830803036,1.010457863629149,1.0066603726539045,0.006835380548845471,0.006790155582289434,false,false,0.034945199999999996
256,11068335,1.0035823982716432,1.0058533457457801,1.010457863629149,1.0035823982716432,1.010457863629149,1.0066312025488575,0.006875465357505828,0.006830173096260765,false,false,0.035708199999999995
141,13601748,1.0035575354375825,1.0059007712522607,1.010457863629149,1.0035575354375825,1.010457863629149,1.006638723439664,0.006900328191566496,0.006854820931175998,false,false,0.035298199999999995
178,13623087,1.0035069492669528,1.006327439160603,1.0102320113056944,1.0035069492669528,1.0102320113056944,1.0066887999110834,0.006725062038741569,0.006680378324796666,false,false,0.032981199999999995
14,12973133,1.003441393157973,1.0056142580536762,1.010457863629149,1.003441393157973,1.010457863629149,1.0065045049469328,0.0070164704711759285,0.006971126742791744,false,false,0.037873199999999996
15,10915895,1.003441393157973,1.0055232062798103,1.010457863629149,1.003441393157973,1.010457863629149,1.0064741543556444,0.0070164704711759285,0.006971336959634049,false,false,0.038773199999999994
246,11410018,1.003441393157973,1.0055870066135726,1.010457863629149,1.003441393157973,1.010457863629149,1.0064954211335648,0.0070164704711759285,0.006971189658541748,false,false,0.0383332
193,10484937,1.0034125152727913,1.0062617707552577,1.0102320113056944,1.0034125152727913,1.0102320113056944,1.006635432444581,0.006819496032903105,0.006774544003822897,false,false,0.0345632
94,12725183,1.0034125152727913,1.0063916701468103,1.0102320113056944,1.0034125152727913,1.0102320113056944,1.0066787322417652,0.006819496032903105,0.006774252613559066,false,false,0.033163200000000004
258,13623117,1.0033998089367424,1.0062740491088153,1.0102320113056944,1.0033998089367424,1.0102320113056944,1.0066352897837507,0.0068322023689519895,0.006787167545476883,false,false,0.034862199999999996
239,13623088,1.0033998089367424,1.0062740491088153,1.0102320113056944,1.0033998089367424,1.0102320113056944,1.0066352897837507,0.0068322023689519895,0.006787167545476883,false,false,0.0344412
4,9790970,1.0033998089367424,1.0062740491088153,1.0102320113056944,1.0033998089367424,1.0102320113056944,1.0066352897837507,0.0068322023689519895,0.006787167545476883,false,false,0.035882199999999996
191,12973244,1.0033401774751036,1.005530084536718,1.010457863629149,1.0033401774751036,1.010457863629149,1.0064427085469905,0.0071176861540453995,0.007072122529777438,false,false,0.039253199999999995
40,13601746,1.003338102124069,1.0055285726892464,1.0104583252324548,1.003338102124069,1.0104583252324548,1.0064416666819236,0.007120223108385781,0.007074650567538616,false,false,0.039809199999999996
237,13357779,1.0033044324937856,1.005530084536718,1.010457863629149,1.0033044324937856,1.010457863629149,1.0064307935532177,0.007153431135363375,0.0071077228371640815,false,false,0.03985519999999999
170,12952964,1.00328492185336,1.0054611608952526,1.010457863629149,1.00328492185336,1.010457863629149,1.006401315459254,0.007172941775789088,0.0071273175676602124,false,false,0.040383199999999994
236,11627664,1.00328492185336,1.0054279799798502,1.010457863629149,1.00328492185336,1.010457863629149,1.0063902551541197,0.007172941775789088,0.007127395897420147,false,false,0.04094319999999999
42,13623118,1.003282397502895,1.0062155401140522,1.0102320113056944,1.003282397502895,1.0102320113056944,1.0065766496408806,0.006949613802799348,0.006904207250663706,false,false,0.036041199999999995
185,13604669,1.003282397502895,1.0061773502771718,1.0102320113056944,1.003282397502895,1.0102320113056944,1.0065639196952538,0.006949613802799348,0.006904294567704558,false,false,0.036686199999999995
22,13624263,1.003282397502895,1.0061516535651924,1.0102320113056944,1.003282397502895,1.0102320113056944,1.006555354124594,0.006949613802799348,0.006904353321773804,false,false,0.03712019999999999
86,12953841,1.0032717681712164,1.0054480344909125,1.010457863629149,1.0032717681712164,1.010457863629149,1.006392555430426,0.007186095457932584,0.007140449737189429,false,false,0.04065219999999999
9,10932282,1.0032127524242636,1.0054480344909125,1.010457863629149,1.0032127524242636,1.010457863629149,1.006372883514775,0.007245111204885468,0.007199231342146055,false,false,0.04123419999999999
175,12954261,1.0032009866844847,1.0053538572053977,1.010457863629149,1.0032009866844847,1.010457863629149,1.0063375691730105,0.00725687694466437,0.007211175620351664,false,false,0.042582199999999994
133,10511265,1.0032009866844847,1.00526986607608,1.010457863629149,1.0032009866844847,1.010457863629149,1.0063095721299045,0.00725687694466437,0.007211376246083825,false,false,0.04341219999999999
195,12958976,1.0031816715917645,1.0052960338197976,1.010457863629149,1.0031816715917645,1.010457863629149,1.0063118563469038,0.007276192037384499,0.007230553820361819,false,false,0.04416219999999999
130,13357776,1.0031816715917645,1.0052546097810346,1.010457863629149,1.0031816715917645,1.010457863629149,1.006298048333983,0.007276192037384499,0.007230653035083284,false,false,0.04486119999999999
245,12308113,1.0031816715917645,1.0052563877075598,1.010457863629149,1.0031816715917645,1.010457863629149,1.0062986409761578,0.007276192037384499,0.007230648776715275,false,false,0.044831199999999995
149,12934835,1.0031717084559537,1.0052860916650734,1.010457863629149,1.0031717084559537,1.010457863629149,1.0063052212500587,0.007286155173195308,0.007240502204832302,false,false,0.044977199999999995
97,11730483,1.0031717084559537,1.0052546236218483,1.010457863629149,1.0031717084559537,1.010457863629149,1.006294731902317,0.007286155173195308,0.007240577677895058,false,false,0.04550819999999999
144,12934837,1.0031687011820427,1.0052860916650734,1.010457863629149,1.0031687011820427,1.010457863629149,1.0063042188254219,0.007289162447106312,0.007243497851588425,false,false,0.0452232
10,12934945,1.003162812907512,1.0052860916650734,1.010457863629149,1.003162812907512,1.010457863629149,1.0063022560672448,0.007295050721636942,0.007249363377308637,false,false,0.047439199999999994
62,12934838,1.003162812907512,1.0052860916650734,1.010457863629149,1.003162812907512,1.010457863629149,1.0063022560672448,0.007295050721636942,0.007249363377308637,false,false,0.046019199999999996
129,12385154,1.0031432851633286,1.0053538572053977,1.010457863629149,1.0031432851633286,1.010457863629149,1.006318335332625,0.007314578465820398,0.0072686526807669285,false,false,0.043151199999999994
216,13604667,1.003142241201733,1.0061689748927516,1.0102320113056944,1.003142241201733,1.0102320113056944,1.006514409133393,0.00708977010396139,0.007043883365828482,false,false,0.0379512
5,13357773,1.0031399272914334,1.0052860916650734,1.010457863629149,1.0031399272914334,1.010457863629149,1.006294627528552,0.007317936337715603,0.007272160794188447,false,false,0.0466322
118,12184416,1.0031375045036799,1.0053538572053977,1.010457863629149,1.0031375045036799,1.010457863629149,1.0063164084460754,0.007320359125469134,0.007274410974549267,false,false,0.043208199999999995
207,12725181,1.0030981949478204,1.0063916701468103,1.0102320113056944,1.0030981949478204,1.0102320113056944,1.0065739588001084,0.007133816357874023,0.007087225231197046,false,false,0.0365132
3,10905410,1.003072753990804,1.0061689748927516,1.0102320113056944,1.003072753990804,1.0102320113056944,1.00649124672975,0.0071592573148904215,0.0071130845282082545,false,false,0.039121199999999995
150,10803945,1.0030436191591185,1.0063916701468103,1.0102320113056944,1.0030436191591185,1.0102320113056944,1.0065557668705412,0.0071883921465758505,0.0071415736546074455,false,false,0.0374772
30,13595203,1.0030030627946411,1.0061066857810366,1.0102274821184785,1.0030030627946411,1.0102274821184785,1.0064457435647187,0.007224419323837328,0.0071781508044827524,false,false,0.0419212
244,13604797,1.003001589612163,1.006112902162039,1.0102320113056944,1.003001589612163,1.0102320113056944,1.0064488343599656,0.007230421693531497,0.0071840926698768185,false,false,0.0402512
91,11730481,1.0029213999531215,1.006112902162039,1.0102320113056944,1.0029213999531215,1.0102320113056944,1.0064221044736181,0.007310611352572938,0.0072639614333555955,false,false,0.0416012
159,13363289,1.002911079845537,1.0060903494574018,1.0102320113056944,1.002911079845537,1.0102320113056944,1.0064111468695442,0.007320931460157443,0.007274294887262826,false,false,0.0421012
83,9641498,1.002911079845537,1.0060903494574018,1.0102320113056944,1.002911079845537,1.0102320113056944,1.0064111468695442,0.007320931460157443,0.007274294887262826,false,false,0.0425382
11,17874064,1.0028031731596074,1.0063916701468103,1.0102320113056944,1.0028031731596074,1.0102320113056944,1.0064756182040373,0.007428838146086969,0.007381041340418205,false,false,0.040443200000000006
20,13363291,1.0027491448282002,1.0060499986545743,1.0102320113056944,1.0027491448282002,1.0102320113056944,1.006343718262823,0.007482866477494188,0.007435696513723273,false,false,0.0454112
156,11978903,1.002740879077408,1.0063916701468103,1.0102320113056944,1.002740879077408,1.0102320113056944,1.0064548535099709,0.007491132228286457,0.007443088184394396,false,false,0.0415432
56,13363292,1.0027171861586364,1.006039380717701,1.0102320113056944,1.0027171861586364,1.0102320113056944,1.0063295260606773,0.007514825147058035,0.007467559037520404,false,false,0.046282199999999996
252,11650515,1.0027128909336327,1.0060362522414323,1.0102329664645144,1.0027128909336327,1.0102329664645144,1.0063273698798598,0.007520075530881742,0.0074727924092728645,false,false,0.047432199999999994
54,9615535,1.0027061539781357,1.0060283848985683,1.0102320113056944,1.0027061539781357,1.0102320113056944,1.0063221833941327,0.007525857327558727,0.00747857639605583,false,false,0.0476022
41,13485936,1.0027061539781357,1.0060283848985683,1.0102320113056944,1.0027061539781357,1.0102320113056944,1.0063221833941327,0.007525857327558727,0.00747857639605583,false,false,0.047184199999999996
103,13363295,1.002700943666303,1.006023191759538,1.0102320113056944,1.002700943666303,1.0102320113056944,1.0063187155771784,0.007531067639391376,0.007483779763622799,false,false,0.0476102
115,13595202,1.002700943666303,1.0059568647979513,1.0102320113056944,1.002700943666303,1.0102320113056944,1.0062966065899828,0.007531067639391376,0.0074839441871037945,false,false,0.0487302
137,9635197,1.0026938348971142,1.006039380717701,1.0102320113056944,1.0026938348971142,1.0102320113056944,1.0063217423068365,0.007538176408580233,0.0074908213662363415,false,false,0.04787519999999999
208,13363294,1.0026938348971142,1.006039380717701,1.0102320113056944,1.0026938348971142,1.0102320113056944,1.0063217423068365,0.007538176408580233,0.0074908213662363415,false,false,0.04667519999999999
230,11335818,1.0026933557929116,1.0060499986545743,1.0102320113056944,1.0026933557929116,1.0102320113056944,1.0063251219177267,0.007538655512782766,0.0074912723021527605,false,false,0.0463502
80,11910740,1.002640933150896,1.006023191759538,1.0102320113056944,1.002640933150896,1.0102320113056944,1.0062987120720428,0.007591078154798314,0.007543563420813416,false,false,0.048620199999999995
35,11068333,1.0026148090758522,1.006039380717701,1.0102320113056944,1.0026148090758522,1.0102320113056944,1.006295400366416,0.00761720222984219,0.007569548888992822,false,false,0.04800519999999999
71,12725180,1.0025604926819258,1.0063916701468103,1.0102320113056944,1.0025604926819258,1.0102320113056944,1.0063947247114768,0.007671518623768581,0.007622773088330652,false,false,0.04475320000000001
6,16875457,1.0024931189180875,1.0063916701468103,1.0102320113056944,1.0024931189180875,1.0102320113056944,1.0063722667901975,0.007738892387606944,0.007689890354679559,false,false,0.04834320000000001
82,13363297,1.0024931189180875,1.0063916701468103,1.0102320113056944,1.0024931189180875,1.0102320113056944,1.0063722667901975,0.007738892387606944,0.007689890354679559,false,false,0.04937320000000001
96,16875458,1.0024684438081466,1.0063916701468103,1.0102320113056944,1.0024684438081466,1.0102320113056944,1.0063640417535504,0.0077635674975478075,0.007714472273890163,false,false,0.04874320000000001
32,11983736,1.002431061027641,1.0063916701468103,1.0102320113056944,1.002431061027641,1.0102320113056944,1.0063515808267152,0.007800950278053387,0.007751714635997219,false,false,0.04934920000000001
219,10628787,1.002423472855817,1.0063934844377662,1.0102338922024163,1.002423472855817,1.0102338922024163,1.0063502831653333,0.007810419346599318,0.007761133948343257,false,false,0.046133200000000006
225,10956350,1.0022399331787644,1.0063916701468103,1.0102320113056944,1.0022399331787644,1.0102320113056944,1.0062878715437564,0.007992078126930036,0.007942138977258375,false,false,0.046493200000000005
